/*--------------------------------*- C++ -*----------------------------------*\
  =========                 |
  \\      /  F ield         | OpenFOAM: The Open Source CFD Toolbox
   \\    /   O peration     | Website:  https://openfoam.org
    \\  /    A nd           | Version:  7
     \\/     M anipulation  |
\*---------------------------------------------------------------------------*/
FoamFile
{
    version     2.0;
    format      ascii;
    class       dictionary;
    location    "system";
    object      fvSolution;
}
// * * * * * * * * * * * * * * * * * * * * * * * * * * * * * * * * * * * * * //

solvers
{

    "rho.*"
    {
        solver          diagonal;
    }

    p
    {
        solver          PCG;
	preconditioner   DIC;
        tolerance       1e-06;
        relTol          0.01;
    }

    pFinal
    {
	$p
        relTol          0;
    }

    "(U|h|e|k|epsilon)"
    {
	solver          PBiCGStab;
        preconditioner  DILU;
        tolerance       1e-6;
        relTol          0.1;
    }

    "(U|h|e|k|epsilon)Final"
    {
        $U;
        tolerance       1e-06;
        relTol          0;
    }

    "Yi.*"
    {
	solver          PBiCG;
        preconditioner  DILU;
        tolerance       1e-8;
        relTol          0.1;
    }
}

PIMPLE
{
    momentumPredictor   yes;
    nOuterCorrectors 1;
    nCorrectors     2;
    nNonOrthogonalCorrectors 0;
}

relaxationFactors
{
    equations
    {
        ".*"            1;
    }
}


// ************************************************************************* //
